29
10208
O            2.01230000000000       -2.77480000000000       -0.00170000000000
O           -0.52390000000000       -2.41510000000000        0.00120000000000
O            0.04770000000000        2.89820000000000       -0.00110000000000
O           -3.07890000000000       -2.22700000000000        0.00120000000000
C            1.10250000000000        0.79940000000000       -0.00050000000000
C            0.95320000000000       -0.58910000000000       -0.00080000000000
C           -1.57830000000000       -0.31680000000000       -0.00040000000000
C           -1.42890000000000        1.07160000000000       -0.00050000000000
C           -0.39280000000000       -1.19790000000000       -0.00040000000000
C           -0.08310000000000        1.68050000000000       -0.00070000000000
C            2.38380000000000        1.36370000000000        0.00020000000000
C            2.08500000000000       -1.41320000000000       -0.00070000000000
C            3.50900000000000        0.53880000000000        0.00040000000000
C           -2.85950000000000       -0.88120000000000        0.00000000000000
C            3.35990000000000       -0.84660000000000       -0.00010000000000
C           -2.56080000000000        1.89570000000000       -0.00010000000000
C           -3.98480000000000       -0.05640000000000        0.00060000000000
C           -3.83570000000000        1.32910000000000        0.00060000000000
C            4.87340000000000        1.14120000000000        0.00250000000000
H            2.51380000000000        2.44330000000000        0.00280000000000
H            4.24240000000000       -1.48250000000000        0.00220000000000
H           -2.47130000000000        2.97870000000000        0.00000000000000
H           -4.98270000000000       -0.48700000000000        0.00130000000000
H           -4.71340000000000        1.96920000000000        0.00110000000000
H            4.88280000000000        2.10000000000000       -0.52710000000000
H            5.21010000000000        1.30490000000000        1.03100000000000
H            5.59470000000000        0.49020000000000       -0.50320000000000
H            2.90910000000000       -3.15070000000000       -0.00170000000000
H           -2.24070000000000       -2.71250000000000       -0.00110000000000
