8

C         -3.22986        0.65983        0.00000
C         -2.15986        0.65983        0.00000
H         -3.58652        1.46832       -0.60336
H         -3.58653        0.77811        1.00185
H         -3.58653       -0.26693       -0.39849
H         -1.80320        1.58660        0.39849
H         -1.80319        0.54155       -1.00185
H         -1.80319       -0.14865        0.60336
